/*--------------------------------*- C++ -*----------------------------------*\
| =========                 |                                                 |
| \\      /  F ield         | OpenFOAM: The Open Source CFD Toolbox           |
|  \\    /   O peration     | Version:  v2312                                 |
|   \\  /    A nd           | Website:  www.openfoam.com                      |
|    \\/     M anipulation  |                                                 |
\*---------------------------------------------------------------------------*/
FoamFile
{
    version     2.0;
    format      ascii;
    class       dictionary;
    object      blockMeshDict;
}
// * * * * * * * * * * * * * * * * * * * * * * * * * * * * * * * * * * * * * //

scale   1;

vertices
(
	//b1
    (31.7853 64.3997 30.0)      		// 0 
    (106.785 64.3997 30.0)     			// 1 
    (106.785 134.4 30.0)      			// 2 
    (31.7853 134.4 30.0)      			// 3 
    (31.7853 64.3997 37.1)     			// 4 
    (106.785 64.3997 37.1)    			// 5 
    (106.785 134.4 37.1)     			// 6 
	(31.7853 134.4 37.1)				// 7 
	

	
);
    
blocks
(
	hex (0 1 2 3 4 5 6 7) (750 700 60) simpleGrading (1 1 1)  //1
);

edges
(
);

boundary
(
	atmosphere
    {
        type patch;
        faces
        (
			(4 5 6 7)
        );
    }
);

mergePatchPairs
(
);


// ************************************************************************* //
