/*--------------------------------*- C++ -*----------------------------------*\
| =========                 |                                                 |
| \\      /  F ield         | OpenFOAM: The Open Source CFD Toolbox           |
|  \\    /   O peration     | Version:  2312                                  |
|   \\  /    A nd           | Website:  www.openfoam.com                      |
|    \\/     M anipulation  |                                                 |
\*---------------------------------------------------------------------------*/
FoamFile
{
    version     2.0;
    format      ascii;
    arch        "LSB;label=32;scalar=64";
    class       volScalarField;
    location    "0";
    object      k;
}
// * * * * * * * * * * * * * * * * * * * * * * * * * * * * * * * * * * * * * //

#include		"include/initialConditions"

dimensions      [0 2 -2 0 0 0 0];

internalField   uniform $turbulentKE;

boundaryField
{
    atmosphere
    {
        type            inletOutlet;
        inletValue      $internalField;
        value           $internalField;
    }
    structure
    {
        type            kqRWallFunction;
        value           uniform 0.0001;
    }
    culvert_outlet
    {
        type            inletOutlet;
        inletValue      $internalField;
        value           $internalField;
    }
    bridge_outlet
    {
        type            inletOutlet;
        inletValue      uniform 0.00414;
        value           uniform 0.00414;
    }
    inlet
    {
        type            fixedValue;
        value           $internalField;
    }
}


// ************************************************************************* //
